tests/data/power_flow/non-floating-ground-no-error/linear/wye_n-delta/asym_output.json
{
  "version": "1.0",
  "type": "asym_output",
  "is_batch": false,
  "attributes": {},
  "data": {
    "node": [
      {"id": 1, "energized": 1, "u_pu": [0.99999999999569444, 0.99999999999252931, 0.99999999999255851], "u": [5773.5026918713993, 5773.5026918531257, 5773.502691853294], "u_angle": [7.4571823954891385e-14, -2.0943951023949143, 2.0943951023951142], "p": [997.2854138522498, 2166.0392926628874, 1301.7429737773191], "q": [1032.4515637473494, 1355.6746219211, 2206.2336426591542]},
      {"id": 2, "energized": 1, "u_pu": [1.314275613860924, 1.317739979061278, 0.4967047377085359], "u": [75.87973794519651, 76.079753163296061, 28.677261402378566], "u_angle": [-0.8596398790592672, -2.2903346115490741, 1.5654617674911757], "p": [-1727.3203891895521, -1736.4386524164688, -986.86238584842215], "q": [-1727.3203891895446, -1736.4386524165561, -986.86238584840896]}
    ],
    "transformer": [
      {"id": 4, "energized": 1, "loading": 0.065524008642345158, "p_from": [997.2854138522498, 2166.0392926628874, 1301.7429737773191], "q_from": [1032.4515637473494, 1355.6746219211, 2206.2336426591542], "i_from": [0.2486283025834676, 0.44259168195904974, 0.44368913630640189], "s_from": [1435.4561742410669, 2555.3042671823755, 2561.6404228110741], "p_to": [-1727.3203891895521, -1736.4386524164688, -986.86238584842215], "q_to": [-1727.3203891895446, -1736.4386524165561, -986.86238584840896], "i_to": [32.193046353424727, 32.27790562366097, 48.666926408354392], "s_to": [2442.7999209554323, 2455.6950924762928, 1395.6341702626999]}
    ],
    "source": [
      {"id": 3, "energized": 1, "p": [997.2854138522498, 2166.0392926628874, 1301.7429737773193], "q": [1032.4515637473494, 1355.6746219211002, 2206.2336426591537], "i": [0.2486283025834676, 0.4425916819590498, 0.44368913630640183], "s": [1435.4561742410669, 2555.304267182376, 2561.6404228110741], "pf": [0.69475155824908397, 0.84766394377421272, 0.50816772025670265]}
    ],
    "asym_load": [
      {"id": 21, "energized": 1, "p": [1727.3203891895084, 1736.4386524164174, 986.86238584842181], "q": [1727.3203891895084, 1736.4386524164174, 986.86238584842181], "i": [32.193046353423981, 32.277905623659208, 48.666926408354705], "s": [2442.7999209553755, 2455.6950924761586, 1395.6341702627085], "pf": [0.70710678118654757, 0.70710678118654746, 0.70710678118654746]}
    ]
  }
}